<configuration>
    <input>
        <net-file value="single-intersection.net.xml"/>
        <route-files value="train/uniform.rou.xml"/>
    </input>
    <time>
        <begin value="0"/>
        <end value="5400"/>
    </time>
</configuration>
